REMARK  4 active torsions:
REMARK  status: ('A' for Active; 'I' for Inactive)
REMARK    1  A    between atoms: C8_11  and  C9_12 
REMARK    2  A    between atoms: C10_14  and  C11_15 
REMARK    3  A    between atoms: C12_16  and  C13_17 
REMARK    4  A    between atoms: C14_19  and  C15_20 
ROOT
ATOM      1  C2' 1O8 d   1      66.019  46.352  29.846  0.00  0.00     0.040 C 
ATOM      2  C1' 1O8 d   1      67.421  46.246  30.454  0.00  0.00     0.009 C 
ATOM      3  C18 1O8 d   1      67.407  45.949  31.957  0.00  0.00     0.040 C 
ATOM      4  C5  1O8 d   1      66.415  46.844  32.707  0.00  0.00    -0.047 A 
ATOM      5  C4  1O8 d   1      66.584  47.002  34.079  0.00  0.00     0.008 A 
ATOM      6  C3  1O8 d   1      65.703  47.780  34.822  0.00  0.00     0.001 A 
ATOM      7  C2  1O8 d   1      64.634  48.426  34.206  0.00  0.00     0.001 A 
ATOM      8  C1  1O8 d   1      64.462  48.278  32.836  0.00  0.00     0.012 A 
ATOM      9  C6  1O8 d   1      65.344  47.494  32.099  0.00  0.00    -0.024 A 
ATOM     10  C7  1O8 d   1      65.164  47.336  30.647  0.00  0.00    -0.047 C 
ATOM     11  C8  1O8 d   1      64.181  48.077  30.006  0.00  0.00     0.014 C 
ENDROOT
BRANCH  11  12
ATOM     12  C9  1O8 d   1      63.958  47.958  28.557  0.00  0.00    -0.061 C 
ATOM     13  C19 1O8 d   1      65.084  48.297  27.580  0.00  0.00     0.048 C 
ATOM     14  C10 1O8 d   1      62.716  47.571  28.062  0.00  0.00     0.007 C 
BRANCH  14  15
ATOM     15  C11 1O8 d   1      61.593  47.264  28.948  0.00  0.00     0.001 C 
ATOM     16  C12 1O8 d   1      60.368  46.896  28.399  0.00  0.00     0.007 C 
BRANCH  16  17
ATOM     17  C13 1O8 d   1      59.211  46.594  29.250  0.00  0.00    -0.056 C 
ATOM     18  C20 1O8 d   1      59.424  46.000  30.644  0.00  0.00     0.048 C 
ATOM     19  C14 1O8 d   1      57.933  46.838  28.759  0.00  0.00     0.091 C 
BRANCH  19  20
ATOM     20  C15 1O8 d   1      56.720  46.567  29.537  0.00  0.00     0.199 C 
ATOM     21  O1  1O8 d   1      55.776  47.381  29.444  0.00  0.00    -0.644 OA
ATOM     22  O2  1O8 d   1      56.685  45.548  30.261  0.00  0.00    -0.644 OA
ENDBRANCH  19  20
ENDBRANCH  16  17
ENDBRANCH  14  15
ENDBRANCH  11  12
TORSDOF 4
