REMARK  3 active torsions:
REMARK  status: ('A' for Active; 'I' for Inactive)
REMARK    1  A    between atoms: OAK_14  and  C2_2 
REMARK    2  A    between atoms: C9_8  and  N8_7 
REMARK    3  A    between atoms: C11_10  and  OAK_14 
ROOT
ATOM      1  C9  MOL d   1      23.647  17.095  10.052  0.00  0.00     0.028 C 
ATOM      2  C10 MOL d   1      23.608  16.731  11.401  0.00  0.00     0.066 C 
ATOM      3  C11 MOL d   1      22.429  16.794  12.129  0.00  0.00     0.080 C 
ATOM      4  C12 MOL d   1      21.260  17.082  11.438  0.00  0.00     0.037 C 
ATOM      5  C13 MOL d   1      21.289  17.469  10.098  0.00  0.00     0.005 C 
ATOM      6  C14 MOL d   1      22.496  17.525   9.410  0.00  0.00     0.029 C 
ENDROOT
BRANCH   3   7
ATOM      7  OAK MOL d   1      22.330  16.254  13.401  0.00  0.00    -0.292 OA
BRANCH   7   8
ATOM      8  C2  MOL d   1      22.215  17.022  14.525  0.00  0.00     0.169 C 
ATOM      9  N1  MOL d   1      22.581  18.324  14.576  0.00  0.00    -0.237 NA
ATOM     10  C6  MOL d   1      22.506  19.050  15.750  0.00  0.00     0.119 C 
ATOM     11  C5  MOL d   1      22.242  18.387  16.956  0.00  0.00     0.019 C 
ATOM     12  C4  MOL d   1      21.948  17.037  16.921  0.00  0.00     0.006 C 
ATOM     13  C3  MOL d   1      21.912  16.360  15.705  0.00  0.00     0.058 C 
ENDBRANCH   7   8
ENDBRANCH   3   7
BRANCH   1  14
ATOM     14  N8  MOL d   1      24.790  17.073   9.364  0.00  0.00    -0.399 N 
ATOM     15  H5  MOL d   1      25.659  16.758   9.819  0.00  0.00     0.156 HD
ATOM     16  H6  MOL d   1      24.804  17.371   8.378  0.00  0.00     0.156 HD
ENDBRANCH   1  14
TORSDOF 3
