REMARK  5 active torsions:
REMARK  status: ('A' for Active; 'I' for Inactive)
REMARK    1  A    between atoms: N1_1  and  C1'_9 
REMARK    2  A    between atoms: C3'_11  and  O3'_14 
REMARK    3  A    between atoms: C4'_12  and  C5'_15 
REMARK    4  A    between atoms: C5'_15  and  O5'_16 
REMARK    5  A    between atoms: O5'_16  and  P_17 
ROOT
ATOM      1  C1' DCM d   1      16.018  46.425 -53.542  0.00  0.00     0.235 C 
ATOM      2  C2' DCM d   1      15.248  46.328 -54.855  0.00  0.00     0.088 C 
ATOM      3  C3' DCM d   1      16.414  46.374 -55.826  0.00  0.00     0.153 C 
ATOM      4  C4' DCM d   1      17.303  47.534 -55.358  0.00  0.00     0.177 C 
ATOM      5  O4' DCM d   1      17.142  47.369 -53.873  0.00  0.00    -0.356 OA
ENDROOT
BRANCH   1   6
ATOM      6  N1  DCM d   1      15.184  46.770 -52.417  0.00  0.00    -0.281 N 
ATOM      7  C6  DCM d   1      15.231  48.042 -52.054  0.00  0.00     0.102 A 
ATOM      8  C5  DCM d   1      14.461  48.520 -51.005  0.00  0.00     0.067 A 
ATOM      9  C4  DCM d   1      13.636  47.583 -50.356  0.00  0.00     0.128 A 
ATOM     10  N3  DCM d   1      13.613  46.285 -50.756  0.00  0.00    -0.177 NA
ATOM     11  N4  DCM d   1      12.904  48.002 -49.346  0.00  0.00    -0.384 N 
ATOM     12  C2  DCM d   1      14.393  45.831 -51.804  0.00  0.00     0.352 A 
ATOM     13  O2  DCM d   1      14.393  44.654 -52.148  0.00  0.00    -0.244 OA
ATOM     14  H3  DCM d   1      12.938  48.991 -49.061  0.00  0.00     0.157 HD
ATOM     15  H4  DCM d   1      12.297  47.341 -48.841  0.00  0.00     0.157 HD
ENDBRANCH   1   6
BRANCH   4  16
ATOM     16  C5' DCM d   1      16.727  48.874 -55.828  0.00  0.00     0.217 C 
BRANCH  16  17
ATOM     17  O5' DCM d   1      16.978  48.967 -57.261  0.00  0.00    -0.280 OA
BRANCH  17  18
ATOM     18  P   DCM d   1      15.939  49.311 -58.377  0.00  0.00     0.422 P 
ATOM     19  O3P DCM d   1      15.514  50.743 -58.351  0.00  0.00    -0.617 OA
ATOM     20  O2P DCM d   1      14.825  48.392 -58.147  0.00  0.00    -0.617 OA
ATOM     21  O1P DCM d   1      16.489  49.051 -59.730  0.00  0.00    -0.617 OA
ENDBRANCH  17  18
ENDBRANCH  16  17
ENDBRANCH   4  16
BRANCH   3  22
ATOM     22  O3' DCM d   1      17.158  45.145 -55.654  0.00  0.00    -0.393 OA
ATOM     23  H10 DCM d   1      17.899  45.139 -56.249  0.00  0.00     0.210 HD
ENDBRANCH   3  22
TORSDOF 5
